data/ENWL/enwl_kron_reduced/Network_14/Feeder_1/Loads.txt
! Imported from Loads.txt, with modified neutral terminal
! --------------------------------------------------------------------------
New Load.LOAD1 Phases=1 Bus1=116.1 kV=0.23 kW=1.968  PF=0.95
New Load.LOAD2 Phases=1 Bus1=192.2 kV=0.23 kW=0.306  PF=0.95
New Load.LOAD3 Phases=1 Bus1=411.3 kV=0.23 kW=2.94  PF=0.95
New Load.LOAD4 Phases=1 Bus1=478.1 kV=0.23 kW=0.324  PF=0.95
New Load.LOAD5 Phases=1 Bus1=500.2 kV=0.23 kW=1.332  PF=0.95
New Load.LOAD6 Phases=1 Bus1=539.3 kV=0.23 kW=3.0540000000000003  PF=0.95
New Load.LOAD7 Phases=1 Bus1=546.3 kV=0.23 kW=2.0580000000000003  PF=0.95
New Load.LOAD8 Phases=1 Bus1=561.3 kV=0.23 kW=0.29400000000000004  PF=0.95
New Load.LOAD9 Phases=1 Bus1=569.3 kV=0.23 kW=0.312  PF=0.95
New Load.LOAD10 Phases=1 Bus1=592.3 kV=0.23 kW=0.27  PF=0.95
New Load.LOAD11 Phases=1 Bus1=737.1 kV=0.23 kW=0.33  PF=0.95
New Load.LOAD12 Phases=1 Bus1=774.2 kV=0.23 kW=0.33  PF=0.95
New Load.LOAD13 Phases=1 Bus1=798.3 kV=0.23 kW=0.246  PF=0.95
New Load.LOAD14 Phases=1 Bus1=809.1 kV=0.23 kW=2.04  PF=0.95
New Load.LOAD15 Phases=1 Bus1=830.2 kV=0.23 kW=0.8280000000000001  PF=0.95
New Load.LOAD16 Phases=1 Bus1=999.3 kV=0.23 kW=0.11399999999999999  PF=0.95
New Load.LOAD17 Phases=1 Bus1=1037.3 kV=0.23 kW=0.28800000000000003  PF=0.95
New Load.LOAD18 Phases=1 Bus1=1093.2 kV=0.23 kW=0.324  PF=0.95
New Load.LOAD19 Phases=1 Bus1=1127.1 kV=0.23 kW=1.944  PF=0.95
New Load.LOAD20 Phases=1 Bus1=1128.2 kV=0.23 kW=0.264  PF=0.95
New Load.LOAD21 Phases=1 Bus1=1129.3 kV=0.23 kW=0.336  PF=0.95
New Load.LOAD22 Phases=1 Bus1=1186.1 kV=0.23 kW=0.966  PF=0.95
New Load.LOAD23 Phases=1 Bus1=1218.1 kV=0.23 kW=0.246  PF=0.95
New Load.LOAD24 Phases=1 Bus1=1231.2 kV=0.23 kW=1.956  PF=0.95
New Load.LOAD25 Phases=1 Bus1=1276.1 kV=0.23 kW=0.29400000000000004  PF=0.95
New Load.LOAD26 Phases=1 Bus1=1314.2 kV=0.23 kW=0.336  PF=0.95
New Load.LOAD27 Phases=1 Bus1=1366.3 kV=0.23 kW=0.27  PF=0.95
New Load.LOAD28 Phases=1 Bus1=1367.3 kV=0.23 kW=0.276  PF=0.95
New Load.LOAD29 Phases=1 Bus1=1419.3 kV=0.23 kW=0.34800000000000003  PF=0.95
New Load.LOAD30 Phases=1 Bus1=1433.2 kV=0.23 kW=0.264  PF=0.95
New Load.LOAD31 Phases=1 Bus1=1469.1 kV=0.23 kW=0.28200000000000003  PF=0.95
New Load.LOAD32 Phases=1 Bus1=1591.1 kV=0.23 kW=0.342  PF=0.95
New Load.LOAD33 Phases=1 Bus1=1638.2 kV=0.23 kW=0.28800000000000003  PF=0.95
New Load.LOAD34 Phases=1 Bus1=1654.3 kV=0.23 kW=2.748  PF=0.95
New Load.LOAD35 Phases=1 Bus1=1655.1 kV=0.23 kW=0.9612  PF=0.95
New Load.LOAD36 Phases=1 Bus1=1708.2 kV=0.23 kW=0.318  PF=0.95
New Load.LOAD37 Phases=1 Bus1=1719.3 kV=0.23 kW=0.28200000000000003  PF=0.95
New Load.LOAD38 Phases=1 Bus1=1720.3 kV=0.23 kW=0.276  PF=0.95
New Load.LOAD39 Phases=1 Bus1=1744.3 kV=0.23 kW=9.738  PF=0.95
New Load.LOAD40 Phases=1 Bus1=1830.3 kV=0.23 kW=0.28800000000000003  PF=0.95
New Load.LOAD41 Phases=1 Bus1=1853.1 kV=0.23 kW=0.28800000000000003  PF=0.95
New Load.LOAD42 Phases=1 Bus1=1857.1 kV=0.23 kW=0.15000000000000002  PF=0.95
New Load.LOAD43 Phases=1 Bus1=1861.1 kV=0.23 kW=0.318  PF=0.95
New Load.LOAD44 Phases=1 Bus1=1880.1 kV=0.23 kW=1.8719999999999999  PF=0.95
New Load.LOAD45 Phases=1 Bus1=1894.2 kV=0.23 kW=5.586  PF=0.95
New Load.LOAD46 Phases=1 Bus1=1897.2 kV=0.23 kW=0.336  PF=0.95
New Load.LOAD47 Phases=1 Bus1=1918.2 kV=0.23 kW=0.354  PF=0.95
New Load.LOAD48 Phases=1 Bus1=1919.2 kV=0.23 kW=0.21599999999999997  PF=0.95
New Load.LOAD49 Phases=1 Bus1=1925.3 kV=0.23 kW=0.324  PF=0.95
New Load.LOAD50 Phases=1 Bus1=1974.3 kV=0.23 kW=0.318  PF=0.95
New Load.LOAD51 Phases=1 Bus1=1980.1 kV=0.23 kW=0.33  PF=0.95
New Load.LOAD52 Phases=1 Bus1=1981.2 kV=0.23 kW=0.22799999999999998  PF=0.95
New Load.LOAD53 Phases=1 Bus1=1982.3 kV=0.23 kW=0.9179999999999999  PF=0.95
New Load.LOAD54 Phases=1 Bus1=1983.1 kV=0.23 kW=0.28800000000000003  PF=0.95
New Load.LOAD55 Phases=1 Bus1=1994.2 kV=0.23 kW=0.4356  PF=0.95
New Load.LOAD56 Phases=1 Bus1=2018.2 kV=0.23 kW=0.402  PF=0.95
New Load.LOAD57 Phases=1 Bus1=2175.1 kV=0.23 kW=0.30000000000000004  PF=0.95
New Load.LOAD58 Phases=1 Bus1=2184.2 kV=0.23 kW=0.354  PF=0.95
New Load.LOAD59 Phases=1 Bus1=2215.2 kV=0.23 kW=0.264  PF=0.95
New Load.LOAD60 Phases=1 Bus1=2229.3 kV=0.23 kW=0.30000000000000004  PF=0.95
New Load.LOAD61 Phases=1 Bus1=2248.3 kV=0.23 kW=0.28800000000000003  PF=0.95
New Load.LOAD62 Phases=1 Bus1=2262.3 kV=0.23 kW=1.476  PF=0.95
New Load.LOAD63 Phases=1 Bus1=2274.2 kV=0.23 kW=1.242  PF=0.95
New Load.LOAD64 Phases=1 Bus1=2276.1 kV=0.23 kW=1.536  PF=0.95
New Load.LOAD65 Phases=1 Bus1=2299.1 kV=0.23 kW=0.30000000000000004  PF=0.95
New Load.LOAD66 Phases=1 Bus1=2300.1 kV=0.23 kW=0.306  PF=0.95
New Load.LOAD67 Phases=1 Bus1=2301.1 kV=0.23 kW=0.318  PF=0.95
New Load.LOAD68 Phases=1 Bus1=2302.1 kV=0.23 kW=0.33  PF=0.95
New Load.LOAD69 Phases=1 Bus1=2303.1 kV=0.23 kW=0.276  PF=0.95
New Load.LOAD70 Phases=1 Bus1=2304.1 kV=0.23 kW=0.246  PF=0.95
New Load.LOAD71 Phases=1 Bus1=2305.1 kV=0.23 kW=0.30000000000000004  PF=0.95
New Load.LOAD72 Phases=1 Bus1=2306.2 kV=0.23 kW=0.264  PF=0.95
! --------------------------------------------------------------------------